this is a test.
After every line.
There is a.
New line.
Except for this one